14

C     -0.769460    1.069333    0.500794
C     -1.334136   -0.141890   -0.170940
O     -0.470503   -0.612192   -1.157302
C      0.782898   -0.930509   -0.664912
C      1.330986    0.111048    0.265467
O      0.571532    1.234396    0.385515
H     -1.266755    1.963400    0.021062
H     -1.058784    1.138885    1.581645
H     -2.304504    0.072114   -0.697268
H     -1.525147   -0.991387    0.527630
H      1.449302   -1.045382   -1.569810
H      0.681082   -1.916238   -0.148047
H      1.569885   -0.384481    1.247389
H      2.343604    0.432905   -0.121221
