23

C     -3.788703   -0.826314   -0.008235
O     -3.320655   -0.034335   -1.025679
C     -2.237558    0.705837   -0.643892
C     -1.088073   -0.180730   -0.233772
O     -0.037434    0.684766    0.122989
C      1.094511   -0.042222    0.525082
C      2.139964    0.986453    0.878304
O      3.334943    0.459218    1.305476
C      3.876415   -0.325603    0.301270
H     -3.052506   -1.558088    0.327298
H     -4.056421   -0.121475    0.835926
H     -4.720874   -1.318354   -0.386217
H     -1.928027    1.394466   -1.476598
H     -2.463585    1.381219    0.227393
H     -0.708704   -0.788610   -1.079805
H     -1.311371   -0.799582    0.676521
H      1.372396   -0.665156   -0.365521
H      0.868475   -0.738494    1.347206
H      1.668759    1.664243    1.618487
H      2.271381    1.603490   -0.061249
H      3.260117   -1.184959   -0.006103
H      3.929369    0.346818   -0.607132
H      4.897583   -0.642588    0.604764
