16

C      2.924581   -0.041561   -0.173449
O      1.711072   -0.737197   -0.350347
C      0.705074    0.148852    0.023361
C     -0.669193   -0.473055   -0.117850
O     -1.596141    0.462570    0.268858
C     -2.901314    0.035341    0.192922
H      2.918839    0.871139   -0.824918
H      3.801043   -0.682173   -0.372954
H      3.016604    0.325737    0.863959
H      0.705201    1.084548   -0.552035
H      0.847147    0.370565    1.106485
H     -0.776167   -1.357181    0.573737
H     -0.844735   -0.884058   -1.132550
H     -3.117081   -0.844811    0.822800
H     -3.542853    0.887933    0.537858
H     -3.182077   -0.200202   -0.865874
