10

C     -0.590202    0.782488   -0.087719
C     -0.663007   -0.721271   -0.102611
O      0.670910   -1.173569   -0.097718
C      1.501249   -0.079572    0.076557
O      2.684035   -0.060092    0.489280
O      0.803295    1.054746   -0.289459
H     -0.798895    1.129839    0.953840
H     -1.218818    1.266899   -0.842475
H     -1.131454   -1.097648    0.846590
H     -1.257114   -1.101820   -0.946284
