13

C      1.111468    0.012082   -0.065366
C      0.052896   -1.090483   -0.034936
C     -1.243743   -0.298494   -0.021163
O     -0.851264    0.838004   -0.767068
C      0.234875    1.247251    0.040558
H      1.622838    0.067577   -1.040951
H      1.834300   -0.075876    0.748233
H      0.157252   -1.744552    0.840694
H      0.078926   -1.654514   -0.992877
H     -1.462571    0.093473    0.998398
H     -2.071898   -0.833405   -0.469926
H     -0.168902    1.283109    1.072073
H      0.705824    2.155829   -0.307669
